Monday 07 Mar 2022
==================

TRAVEL DAY
----------

Zagreb to Zadar

Kelsey & Sven
- keep in touch
- send them a gift
- we should watch the intro to Armour of God 

Can't seem to topup my Vodafone pre-paid account.

Need to get myself a Croatian sim card.

TELEMACH
--------

To get Personal Hotspot working you need to configure the APN.

Use `telemach.hr` as the APN for Mobile data, LTE and Personal Hotspot

Source: https://telemach.hr/upload/documents/mms/iPhone%20postavke%20MMS_Internet.pdf

DEUTSCH
-------

Was hast du gestern gemacht? Beschreibe deinen Tag in der Vergangenheit!

- Ich bin um 7 Uhr aufgestanden.
- Dann habe ich geduscht.
- Ich habe von 8 bis 16 Uhr gearbeitet.
